LAMMPS (2 Apr 2025 - Development - 4dd8c66390-modified)
# GJ thermostat

units   	metal
atom_style      full

boundary 	p p p
read_data argon.lmp
Reading data file ...
  orthogonal box = (0 0 0) to (32.146 32.146 32.146)
  reading atoms ...
  864 atoms
Finding 1-2 1-3 1-4 neighbors ...
     0 = max # of 1-2 neighbors
     0 = max # of 1-3 neighbors
     0 = max # of 1-4 neighbors
     1 = max # of special neighbors

include ff-argon.lmp
#############################
#Atoms types - mass - charge#
#############################
#@ 1 atom types #!THIS LINE IS NECESSARY DON'T SPEND HOURS FINDING THAT OUT!#

variable Ar equal 1

#############
#Atom Masses#
#############

mass 1      39.903

###########################
#Pair Potentials - Tersoff#
###########################

pair_style      lj/cubic
pair_coeff      * * 0.0102701 3.42

velocity all create 10 2357 mom yes dist gaussian

neighbor 1 bin

timestep 0.1

fix lang all langevin/gjf 10 10 1 26488 vel vfull method 4

thermo 200
run 5000

CITE-CITE-CITE-CITE-CITE-CITE-CITE-CITE-CITE-CITE-CITE-CITE-CITE

Your simulation uses code contributions which should be cited:

- Langevin GJF methods: doi:10.1007/s10955-024-03345-1

@Article{gronbech_jensen_2024,
title = {On the Definition of Velocity in Discrete-Time, Stochastic Langevin Simulations},
volume = {191},
number = {10},
url = {https://doi.org/10.1007/s10955-024-03345-1},
doi = {10.1007/s10955-024-03345-1},
urldate = {2024-10-22},
journal = {J. Stat. Phys.},
author = {Gronbech-Jensen, Niels},
year = {2024},
pages = {137}
}

CITE-CITE-CITE-CITE-CITE-CITE-CITE-CITE-CITE-CITE-CITE-CITE-CITE

Generated 0 of 0 mixed pair_coeff terms from geometric mixing rule
Step          Temp          E_pair         E_mol          TotEng         Press
0   10            -56.207652      0             -55.092137      33.341103
Averages over the last 13 of 26 rows, steps 2600 to 5000:
Temp E_pair E_mol TotEng Press
8.52104 -55.1352 0 -54.1847 323.43
Loop time of 2.08834 on 4 procs for 5000 steps with 864 atoms
